
This summary file was generated by TurbSim on 28-Dec-2022 at 14:22:37.


Runtime Options:

     13428  Random seed #1
   5678921  Random seed #2
         F  Output binary HH turbulence parameters?
         F  Output formatted turbulence parameters?
         F  Output AeroDyn HH files?
         T  Output AeroDyn FF files?
         F  Output BLADED FF files?
         F  Output tower data?
         F  Output formatted FF files?
         F  Output coherent turbulence time step file?
         T  Clockwise rotation when looking downwind?
 1 -   HUB  IEC turbulence models scaled to exact specified standard deviation


Turbine/Model Specifications:

        31  Vertical grid-point matrix dimension
        31  Horizontal grid-point matrix dimension
     0.050  Time step [seconds]
    30.000  Analysis time [seconds]
    30.000  Usable output time [seconds]
    90.000  Hub height [m]
   178.000  Grid height [m]
   178.000  Grid width [m]
     0.000  Vertical flow angle [degrees]
     0.000  Horizontal flow angle [degrees]


Meteorological Boundary Conditions:

    IECKAI  IEC Kaimal spectral model
         3  IEC standard: IEC 61400-3 Ed. 1: 2006
         B  IEC turbulence characteristic
       NTM  IEC Normal Turbulence Model
       N/A  IEC Extreme Turbulence Model (ETM) "c" parameter [m/s]
       PL   Wind profile type
    90.000  Reference height [m]
    11.400  Reference wind speed [m/s]
       N/A  Jet height [m]
     0.140  Power law exponent
     0.030  Surface roughness length [m]


Non-IEC Meteorological Boundary Conditions:

       N/A  Site latitude [degrees]
       N/A  Gradient Richardson number
       N/A  Friction or shear velocity [m/s]
       N/A  Mixing layer depth [m]
       N/A  Mean hub u'w' Reynolds stress
       N/A  Mean hub u'v' Reynolds stress
       N/A  Mean hub v'w' Reynolds stress


Spatial Coherence Models:

       IEC  u-component coherence model
       IEC  v-component coherence model
       IEC  w-component coherence model
(   12.000, 0.353E-03)  u-component coherence parameters
(   12.000, 0.353E-03)  v-component coherence parameters
(   12.000, 0.353E-03)  w-component coherence parameters
       N/A  Coherence exponent


You have requested that the following file(s) be generated:

   TurbSim.bts (AeroDyn/TurbSim full-field wind file)


Turbulence Simulation Scaling Parameter Summary:

   Turbulence model used                            =  IEC Kaimal
   Turbulence characteristic                        =  B
   IEC turbulence type                              =  Normal Turbulence Model
   IEC standard                                     =  IEC 61400-3 Ed. 1: 2006
   Mean wind speed at hub height                    =   11.400 m/s
   Expected value of turbulence intensity at 15 m/s =   14.000%
   Characteristic value of standard deviation       =    1.981 m/s
   Turbulence scale                                 =   42.000 m
   u-component integral scale                       =  340.200 m
   Coherency scale                                  =  340.200 m
   Characteristic value of hub turbulence intensity =   17.377%
   Gradient Richardson number                       =    0.000

   Wind profile type                                =  Power law
   Power law exponent                               =    0.140
   Mean shear across rotor disk                     =    0.036 (m/s)/m
   Assumed rotor diameter                           =  178.000 m
   Surface roughness length                         =    0.030 m

   Nyquist frequency of turbulent wind field        =   10.000 Hz

   Number of time steps in the FFT                  =      600
   Number of time steps output                      =      600
   Number of points simulated                       =      961


Mean Flow Angles:

   Vertical   =   0.0 degrees
   Horizontal =   0.0 degrees

Mean Wind Speed Profile:

   Height    Wind Speed   Horizontal Angle  Vertical Angle  U-comp (X)   V-comp (Y)   W-comp (Z)
     (m)        (m/s)         (degrees)       (degrees)       (m/s)        (m/s)        (m/s)   
   ------    ----------   ----------------  --------------  ----------   ----------   ----------
    179.0       12.55            0.00            0.00         12.55         0.00         0.00
    173.1       12.49            0.00            0.00         12.49         0.00         0.00
    167.1       12.43            0.00            0.00         12.43         0.00         0.00
    161.2       12.37            0.00            0.00         12.37         0.00         0.00
    155.3       12.30            0.00            0.00         12.30         0.00         0.00
    149.3       12.24            0.00            0.00         12.24         0.00         0.00
    143.4       12.17            0.00            0.00         12.17         0.00         0.00
    137.5       12.10            0.00            0.00         12.10         0.00         0.00
    131.5       12.02            0.00            0.00         12.02         0.00         0.00
    125.6       11.94            0.00            0.00         11.94         0.00         0.00
    119.7       11.86            0.00            0.00         11.86         0.00         0.00
    113.7       11.78            0.00            0.00         11.78         0.00         0.00
    107.8       11.69            0.00            0.00         11.69         0.00         0.00
    101.9       11.60            0.00            0.00         11.60         0.00         0.00
     95.9       11.50            0.00            0.00         11.50         0.00         0.00
     90.0       11.40            0.00            0.00         11.40         0.00         0.00
     84.1       11.29            0.00            0.00         11.29         0.00         0.00
     78.1       11.18            0.00            0.00         11.18         0.00         0.00
     72.2       11.05            0.00            0.00         11.05         0.00         0.00
     66.3       10.92            0.00            0.00         10.92         0.00         0.00
     60.3       10.78            0.00            0.00         10.78         0.00         0.00
     54.4       10.62            0.00            0.00         10.62         0.00         0.00
     48.5       10.45            0.00            0.00         10.45         0.00         0.00
     42.5       10.26            0.00            0.00         10.26         0.00         0.00
     36.6       10.05            0.00            0.00         10.05         0.00         0.00
     30.7        9.80            0.00            0.00          9.80         0.00         0.00
     24.7        9.51            0.00            0.00          9.51         0.00         0.00
     18.8        9.16            0.00            0.00          9.16         0.00         0.00
     12.9        8.68            0.00            0.00          8.68         0.00         0.00
      6.9        7.96            0.00            0.00          7.96         0.00         0.00
      1.0        6.07            0.00            0.00          6.07         0.00         0.00


Harvested Random Seeds after Generation of the Random Numbers:

    139710228 Harvested seed # 1
   1828580717 Harvested seed # 2


Scaling statistics from the hub grid point:

  Component  Target Sigma (m/s)  Simulated Sigma (m/s)  Scaling Factor
  ---------  ------------------  ---------------------  --------------
     u'             1.981                1.782                1.112
     v'             1.585                1.000                1.584
     w'             0.990                0.824                1.202


Hub-Height Simulated Turbulence Statistical Summary:

   Type of Wind        Min (m/s)   Mean (m/s)    Max (m/s)  Sigma (m/s)       TI (%)
   ----------------    ---------   ----------    ---------  -----------       ------
   Longitudinal (u)         7.27        11.40        15.57        1.981       17.377
   Lateral (v)             -4.86         0.00         4.49        1.585       13.902
   Vertical (w)            -2.68         0.00         3.06        0.991        8.689
   U component              7.27        11.40        15.57        1.981       17.377
   V component             -4.86         0.00         4.49        1.585       13.902
   W component             -2.68         0.00         3.06        0.991        8.689
   Horizontal (U&V)         7.29        11.51        15.66        1.963       17.052
   Total                    7.33        11.56        15.72        1.949       16.867

                       Min Reynolds     Mean Reynolds    Max Reynolds    Correlation
   Product             Stress (m/s)^2   Stress (m/s)^2   Stress (m/s)^2  Coefficient
   ----------------    --------------   --------------   --------------  -----------
   u'w'                     -6.353            -0.693             6.267        -0.353
   u'v'                     -8.227             0.679             8.727         0.216
   v'w'                     -4.880            -0.306             6.366        -0.195


   Friction Velocity (Ustar)  =      0.833 m/s
   Maximum Instantaneous TKE  =     12.230 (m/s)^2
   Maximum Instantaneous CTKE =      5.310 (m/s)^2


Grid Point Variance Summary:

   Y-coord  -89.00  -83.07  -77.13  -71.20  -65.27  -59.33  -53.40  -47.47  -41.53  -35.60  -29.67  -23.73  -17.80  -11.87   -5.93    0.00    5.93   11.87   17.80   23.73   29.67   35.60   41.53   47.47   53.40   59.33   65.27   71.20   77.13   83.07   89.00

   Height   Standard deviation at grid points for the u component:
   179.00    1.090   1.174   1.403   1.631   1.330   1.025   1.101   1.382   1.208   1.404   1.415   1.654   1.109   1.000   1.066   0.822   0.954   1.039   1.165   1.004   1.236   1.030   1.021   1.160   1.249   0.783   0.972   1.167   1.027   0.956   1.170
   173.07    0.877   0.869   0.877   1.373   1.424   1.449   1.341   1.316   1.181   1.415   1.581   1.425   1.240   0.940   1.039   1.070   0.788   1.091   1.175   1.278   1.248   1.000   1.038   1.031   1.031   1.092   0.986   1.247   1.112   1.071   0.862
   167.13    1.113   1.007   0.915   1.215   1.201   1.517   1.615   1.293   1.782   1.338   1.654   1.180   0.958   1.012   1.037   0.823   0.942   1.034   1.306   1.198   0.843   0.958   1.006   1.084   1.063   0.978   1.138   1.101   1.073   1.358   1.063
   161.20    1.215   1.025   1.145   1.358   1.127   1.156   1.565   1.817   1.648   1.733   1.509   1.140   1.059   0.920   1.183   1.093   0.910   0.988   0.996   0.984   1.263   0.953   1.021   0.910   0.804   1.054   1.151   1.004   1.273   1.414   1.026
   155.27    0.962   1.155   0.904   0.898   0.979   1.302   1.441   1.470   1.500   1.788   1.592   1.087   0.800   1.114   1.113   1.098   1.051   1.052   0.990   1.040   1.208   1.298   1.137   1.035   1.134   1.276   1.047   0.927   1.336   1.586   1.257
   149.33    1.115   1.108   0.970   1.229   1.319   1.204   1.225   1.325   1.168   1.250   1.539   1.528   1.314   0.988   1.040   1.083   0.887   0.980   1.199   1.185   1.578   1.355   1.101   1.094   1.042   1.124   1.058   0.998   1.217   1.281   1.465
   143.40    1.248   1.115   1.282   1.340   1.380   1.024   0.848   1.041   1.108   1.068   1.533   1.661   1.346   1.210   1.311   0.982   1.218   1.244   1.366   1.623   1.782   1.177   1.283   1.391   0.906   1.103   1.185   1.303   1.480   1.612   1.405
   137.47    1.309   0.998   1.323   1.000   1.488   1.295   1.001   1.074   1.277   1.141   1.338   1.438   1.195   1.201   1.009   0.998   1.234   1.176   1.060   1.479   1.483   1.076   1.134   1.212   1.172   0.976   1.001   1.300   1.294   1.574   1.728
   131.53    1.151   1.327   1.377   1.582   1.805   1.437   1.417   0.979   1.128   1.130   1.019   0.966   1.056   1.367   0.876   1.175   1.005   0.961   1.061   1.312   1.349   1.252   0.986   1.327   1.059   1.167   1.353   1.249   1.313   1.520   1.831
   125.60    0.913   1.051   1.392   1.267   1.507   1.422   1.254   1.066   1.241   1.102   1.329   0.926   1.118   1.149   1.252   1.041   0.908   0.880   1.295   1.155   1.094   1.219   1.083   1.166   1.288   1.042   1.186   1.115   0.936   1.317   1.733
   119.67    0.978   1.469   1.742   1.662   1.053   1.258   0.928   0.933   1.086   1.339   1.098   1.051   1.208   1.183   1.497   1.381   0.808   1.034   1.234   1.026   1.236   1.034   1.364   1.248   1.238   1.064   1.091   1.028   1.051   1.478   1.554
   113.73    1.064   1.616   1.795   1.608   1.160   1.275   0.905   1.004   1.133   1.313   0.984   1.068   1.206   1.022   1.006   1.111   1.187   0.863   1.137   1.281   0.846   0.997   1.442   1.105   1.057   1.578   1.315   1.040   1.212   1.278   1.608
   107.80    1.529   1.674   1.262   1.419   1.557   1.491   1.316   1.320   1.383   1.357   0.934   1.122   1.042   1.301   1.044   1.014   1.090   0.889   1.093   1.062   0.951   1.123   1.274   1.236   1.356   1.357   1.535   1.349   1.157   1.703   1.463
   101.87    1.327   1.188   1.172   1.152   1.117   1.369   1.178   1.260   1.189   1.257   1.313   1.170   1.230   1.124   1.773   1.524   1.467   1.530   1.038   1.027   0.875   1.011   1.007   1.089   1.174   1.144   1.290   1.608   1.279   1.720   1.480
    95.93    1.562   1.339   1.291   1.143   1.335   1.544   1.640   1.620   1.593   1.608   1.139   1.117   1.256   1.910   1.976   1.890   1.787   1.452   1.347   1.020   1.209   1.138   1.092   1.111   1.171   0.938   0.858   1.335   1.592   1.597   1.617
    90.00    1.498   1.148   0.887   1.297   1.664   1.303   1.597   1.702   2.164   2.002   1.584   1.194   1.508   1.769   2.065   1.981   1.560   1.175   1.177   1.008   1.119   1.286   1.171   0.913   1.103   0.883   1.125   1.265   1.528   1.540   1.646
    84.07    1.131   1.135   1.086   1.478   1.712   1.805   2.073   1.994   2.134   2.025   1.563   1.469   1.885   1.553   1.885   1.705   0.930   1.002   1.084   0.989   0.984   1.103   1.385   1.173   1.033   1.199   1.208   1.188   1.701   1.325   1.195
    78.13    1.199   1.609   1.466   2.169   1.843   2.311   1.812   2.155   1.965   1.707   2.192   1.865   1.488   1.993   1.958   1.269   1.297   1.153   1.127   1.181   0.957   1.300   1.397   1.139   1.405   1.540   1.154   1.557   1.793   1.182   1.475
    72.20    1.263   1.662   1.810   2.026   2.379   2.281   2.258   2.398   2.371   2.095   1.979   1.796   1.987   1.933   1.876   1.001   1.027   1.273   1.554   1.444   1.416   0.976   1.331   1.323   1.540   1.650   1.510   1.638   1.459   1.671   1.516
    66.27    1.003   1.503   1.385   1.394   2.046   2.388   2.861   2.600   2.085   1.953   1.423   1.426   1.699   1.457   1.475   1.182   1.311   1.691   1.714   1.283   1.680   1.330   1.253   1.276   1.247   1.428   1.743   1.284   1.625   1.761   1.486
    60.33    1.194   1.631   1.826   2.172   1.893   2.222   2.545   2.713   2.029   2.299   1.926   1.732   1.822   1.987   1.539   1.387   1.458   1.624   1.743   1.426   1.585   1.310   1.331   1.352   1.150   1.423   1.649   1.376   1.480   1.715   1.445
    54.40    1.112   1.883   1.791   2.079   2.043   2.100   2.330   2.089   2.229   2.180   2.022   2.042   2.100   1.751   1.596   1.498   1.675   1.745   1.643   1.335   1.395   1.252   0.964   1.255   1.374   1.573   1.298   0.925   1.299   1.314   1.320
    48.47    1.628   1.880   2.168   1.951   1.459   1.656   1.507   1.837   1.797   1.480   1.598   1.497   1.573   1.972   1.716   1.759   1.329   1.242   1.381   1.185   1.096   1.206   1.311   1.234   1.371   1.156   1.536   1.180   1.280   1.302   0.914
    42.53    1.838   2.003   1.935   1.679   1.421   1.309   1.006   1.413   1.697   1.937   1.662   1.301   1.078   1.497   1.674   1.466   1.663   1.838   1.260   1.329   1.179   1.094   1.406   1.399   1.440   1.164   1.272   1.146   1.015   0.916   1.015
    36.60    1.819   1.965   1.989   1.493   1.113   0.937   0.876   1.200   1.846   1.707   1.963   1.759   1.585   1.257   1.451   1.234   1.574   1.670   1.759   1.242   1.391   1.067   1.206   1.201   1.286   0.914   1.039   0.967   0.958   1.238   1.224
    30.67    1.730   1.765   1.596   1.640   1.296   1.178   1.225   1.497   1.628   1.938   1.776   1.849   1.209   1.134   1.383   1.439   1.295   1.381   1.223   1.193   1.158   0.982   1.064   1.580   1.323   1.055   1.162   0.892   1.095   1.002   1.165
    24.73    1.968   1.910   1.823   1.261   1.205   1.016   0.998   1.409   1.094   1.558   1.451   1.491   1.486   1.197   1.234   1.411   1.351   1.279   0.906   1.052   1.099   1.189   1.481   1.880   1.826   1.721   1.185   1.175   1.606   1.355   1.097
    18.80    1.977   1.805   1.700   1.536   1.631   1.030   0.902   1.120   1.242   1.356   1.521   1.197   1.265   1.205   1.379   1.596   1.544   1.294   1.218   0.962   1.146   1.479   1.493   1.975   1.696   1.446   0.983   1.423   1.683   1.422   1.457
    12.87    1.610   1.843   1.971   1.557   1.211   1.620   1.307   1.289   0.999   1.158   1.215   1.214   1.008   0.972   0.884   1.215   1.377   1.432   1.449   1.065   0.989   1.316   1.947   2.088   2.014   1.235   1.177   1.240   1.457   1.298   1.510
     6.93    1.522   1.596   1.422   1.725   1.199   1.588   1.751   1.646   1.238   1.018   0.973   1.110   1.035   0.877   1.012   0.968   1.340   1.307   1.501   1.235   1.070   1.427   1.754   1.887   1.888   1.263   1.227   1.002   0.967   1.173   1.111
     1.00    1.326   1.467   1.214   1.342   1.237   1.404   1.557   1.204   1.342   0.902   1.080   0.965   0.945   0.829   1.024   1.096   1.162   1.400   1.301   1.296   1.575   1.777   2.016   1.762   1.994   1.532   0.975   1.235   1.486   1.559   1.357

   Height   Standard deviation at grid points for the v component:
   179.00    1.989   1.637   2.087   1.883   1.491   1.529   1.669   1.824   1.778   1.657   1.741   1.847   2.385   2.454   3.012   2.964   2.487   2.259   2.895   2.292   2.164   2.050   2.301   1.686   1.366   1.854   2.133   1.523   1.551   1.514   1.508
   173.07    2.766   2.047   2.127   2.161   1.374   1.692   1.746   1.715   1.843   1.876   1.958   1.570   2.411   2.515   3.048   3.052   2.632   2.350   2.690   2.711   2.902   2.251   2.264   2.365   1.657   1.938   1.939   1.807   1.399   1.636   1.700
   167.13    3.303   2.708   2.381   1.723   1.979   1.408   1.279   1.535   2.093   1.561   1.778   2.082   2.358   2.534   2.585   2.134   2.018   2.167   2.754   2.808   2.904   2.698   2.364   2.165   1.937   1.865   1.715   1.911   2.131   1.760   1.670
   161.20    2.864   3.149   3.546   2.652   2.202   1.452   1.795   1.696   1.876   1.851   1.903   2.150   2.027   1.709   1.834   1.775   1.566   1.838   2.148   2.522   2.864   2.095   1.700   1.533   1.439   1.906   1.553   1.924   2.363   1.768   2.386
   155.27    2.725   2.405   3.112   3.410   2.466   2.017   1.964   1.663   1.978   1.714   1.984   1.873   2.397   1.984   1.511   2.008   2.138   1.854   1.686   2.255   2.324   2.314   2.124   2.172   1.864   2.026   1.497   1.762   1.850   2.052   2.291
   149.33    2.333   2.683   2.726   3.056   2.847   2.326   2.045   2.229   1.850   2.079   1.945   1.586   2.060   2.563   2.025   2.261   2.024   2.158   1.927   2.229   1.993   2.010   1.527   1.748   1.853   1.613   1.659   1.282   1.719   1.469   1.746
   143.40    2.286   2.396   2.694   3.018   2.411   1.631   1.593   2.023   2.067   2.058   1.632   1.652   1.748   2.076   1.888   2.307   2.416   2.026   1.818   1.875   2.183   2.199   1.734   1.631   1.395   1.487   1.195   1.605   1.646   1.739   1.662
   137.47    1.584   2.361   2.581   2.765   2.745   1.985   2.098   1.915   2.177   1.983   2.139   2.100   2.261   2.455   2.362   1.766   1.727   2.300   2.511   2.121   2.254   2.383   1.780   2.075   1.786   1.658   2.220   1.748   1.836   1.858   1.691
   131.53    2.222   2.645   2.466   2.414   1.911   2.433   2.064   2.121   1.887   1.787   1.738   1.439   1.980   1.803   1.720   1.738   1.789   2.150   2.105   2.358   2.028   2.115   2.330   2.116   1.616   1.733   1.969   2.017   2.010   1.497   1.698
   125.60    1.529   2.581   3.055   2.982   2.435   2.773   1.828   2.141   1.509   1.697   2.136   1.724   1.591   2.115   2.022   1.549   1.882   1.965   1.555   1.876   2.175   2.241   2.324   1.950   2.057   2.159   2.493   1.842   2.052   1.959   1.804
   119.67    2.127   2.409   2.623   2.428   2.708   2.804   2.148   2.100   1.353   1.791   2.081   1.810   1.781   2.066   1.288   1.711   1.449   1.536   1.720   1.578   1.792   1.549   1.651   1.988   1.791   2.077   2.203   1.838   1.583   1.874   1.578
   113.73    1.624   2.050   1.725   2.298   2.732   2.797   2.637   2.293   1.517   1.394   1.785   1.925   1.901   2.216   1.865   1.789   1.347   1.726   1.386   1.347   1.354   1.722   1.825   1.623   1.804   2.209   1.633   1.913   1.756   1.827   1.882
   107.80    2.092   2.386   2.059   2.199   2.803   2.417   2.698   2.282   1.486   1.541   1.588   1.762   2.305   2.395   2.357   2.063   2.007   1.834   1.597   1.410   1.447   1.687   1.977   2.076   2.194   2.237   1.564   2.129   2.495   2.192   2.123
   101.87    1.678   2.096   2.273   2.295   2.398   2.784   2.401   2.599   1.879   1.692   1.866   1.680   2.157   2.094   2.379   2.116   1.962   2.357   1.484   1.770   1.899   2.162   2.045   2.211   2.060   1.598   2.137   2.208   2.637   2.244   2.358
    95.93    1.335   1.585   1.743   2.036   2.246   2.147   2.217   2.065   1.442   1.660   1.368   1.717   2.046   2.478   2.412   1.789   1.861   1.889   2.154   2.054   1.920   1.858   1.909   1.815   1.793   2.003   2.381   1.863   2.303   1.985   2.283
    90.00    1.785   1.504   1.323   1.975   2.078   2.504   2.323   2.132   1.672   1.580   1.601   2.392   1.879   2.032   1.727   1.585   1.886   1.742   1.881   1.975   2.103   1.725   1.633   1.590   1.945   2.728   2.736   2.392   2.140   1.902   1.684
    84.07    1.964   1.643   1.309   1.601   1.914   2.000   2.506   2.503   1.573   1.332   1.776   2.170   1.837   1.442   1.618   1.559   1.696   1.532   1.806   1.871   1.852   1.690   1.391   1.553   1.894   2.588   2.856   2.513   1.726   2.193   1.738
    78.13    2.162   1.110   1.561   1.642   1.505   2.134   2.270   2.281   1.651   1.630   1.489   1.865   1.927   2.028   1.914   1.714   1.325   1.575   1.789   1.393   1.668   1.784   1.309   1.708   1.713   2.235   2.498   2.256   1.992   1.842   1.729
    72.20    2.154   1.530   1.698   1.626   1.670   2.046   2.102   1.955   1.767   1.610   1.672   1.727   1.716   1.697   1.865   1.525   2.102   2.150   2.161   1.742   1.697   1.652   1.723   1.765   1.901   1.794   2.113   1.897   1.830   1.522   1.952
    66.27    2.558   2.624   2.169   1.612   1.773   1.908   1.991   1.784   1.643   1.544   1.647   1.371   1.542   1.388   1.690   1.790   1.856   1.992   1.605   1.861   1.484   1.454   1.600   1.962   1.950   2.101   1.804   2.340   2.339   1.635   1.843
    60.33    2.738   2.774   2.430   2.231   1.328   1.532   1.727   1.608   1.570   1.623   1.783   1.615   1.497   1.902   1.501   1.657   1.506   1.865   1.750   1.934   1.886   1.609   1.910   2.230   1.973   1.770   2.205   2.126   1.918   1.744   2.056
    54.40    2.463   1.946   2.291   2.041   1.932   1.926   1.614   1.981   1.886   1.948   1.767   2.188   2.101   1.600   1.385   1.482   1.850   1.640   1.937   2.011   1.485   1.962   2.192   2.335   1.703   1.679   1.949   2.207   1.958   1.625   1.581
    48.47    2.175   2.087   2.229   1.847   1.679   1.777   1.985   1.958   1.769   2.022   2.059   1.956   1.896   1.780   1.261   2.110   1.864   2.413   2.465   2.244   1.887   2.422   1.793   2.115   1.845   1.547   1.659   1.725   2.204   1.602   1.990
    42.53    2.123   2.016   1.951   1.845   1.620   1.799   1.754   1.717   1.548   2.133   2.484   1.872   1.905   2.210   2.106   2.199   2.072   2.282   1.815   2.264   2.193   2.164   2.276   1.947   2.046   2.170   2.412   2.458   2.086   1.482   1.752
    36.60    2.233   2.248   2.365   1.943   1.633   1.717   1.843   1.578   2.209   1.944   2.278   2.026   1.889   2.013   2.747   2.953   2.672   2.317   1.766   1.913   1.795   2.291   2.684   2.081   2.533   1.932   2.202   2.050   1.647   2.242   2.230
    30.67    2.543   2.730   2.799   2.130   2.661   1.690   1.561   1.821   2.114   2.012   2.011   1.647   1.764   1.949   2.078   2.311   2.123   2.019   2.054   1.519   1.693   2.020   2.447   2.357   2.779   2.342   2.436   2.629   2.258   2.190   1.998
    24.73    2.332   2.433   2.547   2.921   2.751   1.580   2.154   1.799   1.714   1.711   1.801   1.460   1.839   1.796   1.879   1.780   1.847   1.584   2.162   1.835   2.448   2.157   2.517   2.571   2.716   1.928   2.216   2.347   1.987   1.811   1.879
    18.80    1.860   1.767   1.744   2.277   2.250   2.028   2.423   1.814   1.772   1.968   1.815   1.720   1.625   1.536   1.868   1.976   1.526   1.464   1.701   1.910   2.529   2.222   2.070   2.300   2.455   1.810   2.292   2.554   2.174   1.848   1.524
    12.87    1.704   1.884   2.401   2.256   2.269   2.343   1.916   1.731   1.381   1.588   1.884   1.671   1.561   1.616   1.971   2.165   1.942   1.840   2.026   2.262   2.039   2.638   2.456   2.007   2.087   1.866   2.027   1.961   1.980   1.472   1.581
     6.93    1.796   1.861   2.152   1.879   1.657   1.889   1.657   1.621   1.113   1.770   1.598   1.574   1.448   1.531   1.831   1.839   1.951   1.844   1.818   1.552   1.939   2.354   2.841   2.320   1.463   1.807   2.068   1.857   1.763   1.789   1.804
     1.00    1.934   1.637   1.839   1.771   1.724   1.398   1.485   1.675   1.600   1.800   1.715   1.751   1.594   1.611   1.876   1.710   1.709   1.844   1.784   1.917   2.171   2.264   2.381   2.679   2.179   1.960   1.578   1.654   1.892   1.610   1.782

   Height   Standard deviation at grid points for the w component:
   179.00    1.037   1.087   1.242   1.342   1.169   1.235   1.331   1.236   1.092   1.090   1.151   1.014   1.058   1.037   1.036   1.175   1.250   1.218   1.200   1.244   1.221   0.986   0.982   1.098   1.196   1.258   1.071   1.142   1.012   1.035   0.959
   173.07    1.124   1.036   1.335   1.353   1.381   1.105   1.171   1.125   0.868   0.878   1.071   1.021   1.113   0.858   0.996   1.064   1.100   1.020   1.160   1.067   0.992   1.145   1.084   1.247   1.320   1.095   1.262   1.264   1.177   1.078   0.927
   167.13    1.048   1.144   1.372   1.356   1.230   1.326   1.247   1.008   1.026   0.978   0.996   0.969   1.029   0.988   1.074   0.970   1.031   0.982   1.071   0.990   0.984   1.187   1.092   1.245   1.444   1.232   1.165   1.065   1.091   1.002   0.921
   161.20    1.085   1.208   1.243   1.169   1.075   1.099   1.097   1.170   1.018   0.970   0.857   0.851   0.908   1.058   0.982   1.116   1.043   0.978   1.029   1.030   1.036   1.079   1.240   1.247   1.242   1.310   1.335   1.300   0.902   0.965   0.929
   155.27    1.113   1.237   1.143   1.177   1.215   1.269   0.920   0.947   0.965   0.946   1.036   0.966   0.969   1.032   1.140   1.197   1.229   1.141   1.010   1.050   1.017   1.200   1.219   1.111   1.019   1.141   1.074   1.121   1.182   0.845   0.936
   149.33    1.181   1.297   1.255   1.411   1.166   1.044   1.013   0.933   1.006   1.019   0.928   0.953   0.947   0.966   1.022   1.120   1.026   1.069   1.066   1.181   1.225   1.304   1.136   0.935   1.013   1.194   1.039   1.117   0.960   0.942   0.954
   143.40    1.172   1.156   1.064   1.187   1.152   0.947   1.033   1.070   1.013   0.993   0.931   0.972   0.979   1.131   0.902   1.028   1.331   1.101   1.053   1.179   1.436   1.187   1.035   1.125   0.903   1.056   1.080   0.952   0.935   1.065   0.874
   137.47    1.176   0.971   0.988   0.947   1.063   1.056   1.060   1.103   1.080   0.964   0.938   0.967   0.947   1.031   1.043   1.065   1.172   1.307   1.152   1.220   1.378   1.370   0.988   1.061   1.078   0.993   0.945   0.855   1.073   1.055   1.020
   131.53    1.022   0.999   0.875   0.892   0.977   0.945   1.108   1.130   0.951   1.000   0.929   0.847   1.049   1.108   0.987   1.121   1.143   1.137   1.253   1.203   1.290   1.229   1.161   1.054   1.024   0.997   0.834   1.000   1.031   0.990   1.117
   125.60    0.976   1.014   0.842   0.877   0.927   0.952   0.938   1.063   1.024   0.964   0.982   0.899   0.885   1.003   0.923   0.949   1.039   1.028   1.123   1.186   0.983   0.901   0.949   1.125   1.038   1.202   1.003   1.116   0.952   1.170   1.094
   119.67    0.994   0.954   0.990   0.931   0.905   0.919   0.952   1.085   1.171   0.996   1.125   0.975   0.918   0.947   0.967   0.934   1.044   1.127   1.095   0.909   1.065   0.837   0.901   1.032   1.150   1.048   1.092   1.090   1.183   1.130   1.082
   113.73    1.053   0.981   0.992   1.071   1.009   0.939   0.966   1.111   1.060   1.124   1.195   1.300   1.079   0.964   1.126   0.903   0.964   1.029   0.892   0.875   0.967   1.098   0.965   1.239   1.044   1.096   1.024   1.147   1.120   1.125   0.938
   107.80    1.039   1.057   0.988   0.921   0.971   0.964   0.944   1.032   1.130   1.036   1.210   1.144   1.049   1.058   1.038   1.068   1.022   0.939   1.037   1.098   1.018   0.975   1.055   1.074   1.080   1.057   0.914   1.051   0.984   0.947   0.975
   101.87    1.021   1.202   1.131   1.039   0.928   0.971   0.998   1.054   1.175   1.131   1.027   1.002   1.153   0.953   1.107   1.135   1.247   1.068   0.944   0.959   0.994   0.968   1.105   1.083   1.115   0.983   1.168   1.040   0.986   0.908   0.965
    95.93    0.999   1.136   1.316   1.090   0.910   1.108   1.214   1.072   1.047   1.059   0.916   1.092   1.086   1.025   1.079   1.026   1.071   1.120   0.945   0.946   0.884   0.991   1.073   1.072   1.055   0.922   1.052   1.214   1.035   0.965   0.929
    90.00    0.999   1.279   1.565   1.362   1.102   1.168   1.218   1.091   1.058   1.016   1.117   1.191   0.996   0.968   0.949   0.991   1.009   0.984   0.986   1.013   1.067   1.060   1.097   1.013   0.916   0.849   1.135   1.068   0.957   0.957   1.088
    84.07    1.194   1.389   1.434   1.325   1.240   1.146   1.272   1.229   1.161   1.207   1.122   1.073   0.893   1.112   1.033   1.004   0.963   0.977   0.971   0.884   0.834   1.056   0.900   1.034   0.983   1.102   1.156   1.019   0.876   0.920   1.102
    78.13    1.117   1.155   1.335   1.274   1.195   1.019   1.099   1.136   1.081   1.197   1.184   1.070   1.034   1.055   0.933   1.013   1.065   1.254   1.320   1.221   0.979   0.974   1.106   1.043   0.958   1.111   0.980   1.066   0.983   0.979   0.925
    72.20    1.013   1.078   1.278   1.321   1.214   1.287   1.218   1.064   1.290   1.281   1.259   1.033   1.125   0.981   0.932   0.926   1.105   1.122   1.208   1.321   1.132   1.128   1.113   0.917   0.943   1.000   0.983   1.086   1.021   1.055   1.034
    66.27    1.063   1.230   1.098   1.238   1.401   1.184   1.252   1.275   1.289   1.311   1.340   1.086   1.195   0.902   0.980   1.116   1.076   1.422   1.408   1.437   1.200   1.272   1.149   0.989   0.892   1.019   0.942   1.042   0.991   1.008   1.141
    60.33    0.988   1.131   1.143   1.210   1.235   1.352   1.292   1.237   1.101   1.236   1.221   1.143   0.865   1.041   1.064   1.057   1.253   1.377   1.255   1.275   1.170   1.131   1.253   1.160   1.278   1.073   0.835   0.890   1.087   1.096   1.180
    54.40    0.918   1.129   1.321   1.371   1.337   1.320   1.379   1.193   1.216   1.383   1.384   1.041   1.133   1.207   1.225   1.192   1.134   1.273   1.215   1.125   1.082   1.178   1.149   1.043   1.198   0.967   0.919   0.985   0.901   0.917   1.000
    48.47    1.261   1.304   1.522   1.269   1.234   1.321   1.273   1.311   1.329   1.396   1.539   1.403   1.417   1.303   1.067   1.033   0.977   1.191   1.306   1.274   1.247   1.138   1.307   0.956   1.112   0.889   1.060   1.031   1.054   1.022   0.972
    42.53    1.131   1.363   1.404   1.393   1.443   1.195   1.223   1.352   1.435   1.165   1.292   1.406   1.499   1.229   1.233   1.203   1.243   1.208   1.186   1.323   1.327   1.312   1.357   1.066   1.038   1.111   1.110   1.003   1.016   1.130   1.119
    36.60    1.052   1.057   1.302   1.241   1.207   0.969   1.027   1.118   1.250   1.253   1.200   1.353   1.385   1.169   1.157   1.186   0.998   1.027   0.988   1.137   1.351   1.297   1.416   1.273   0.956   0.958   1.084   0.875   0.971   0.968   1.019
    30.67    0.946   0.987   1.155   1.212   1.033   1.032   0.978   1.024   1.027   1.147   1.187   1.273   1.163   1.250   1.385   1.239   1.268   1.104   1.049   1.146   1.264   1.295   1.305   1.298   1.022   0.995   1.221   1.025   0.948   0.948   0.975
    24.73    0.941   1.017   1.163   0.993   0.947   1.074   1.150   1.237   1.226   1.245   1.285   1.280   1.319   1.094   1.093   1.140   1.333   1.284   1.228   1.219   1.164   1.121   1.306   1.123   1.289   1.182   1.159   0.975   0.938   1.076   0.878
    18.80    1.101   1.115   0.931   1.088   0.906   0.988   1.081   1.071   1.095   1.189   1.164   0.977   1.065   1.164   1.331   1.078   1.234   1.271   1.246   1.233   1.273   1.429   1.433   1.174   1.242   1.110   0.946   1.047   1.148   1.033   0.995
    12.87    1.051   1.055   1.164   1.179   0.982   0.915   1.154   1.052   0.968   0.976   1.063   0.949   1.054   1.187   1.250   1.066   1.160   1.141   1.372   1.168   1.373   1.405   1.348   1.208   1.128   1.054   1.026   1.112   1.123   1.131   1.133
     6.93    1.046   0.892   0.958   1.052   1.081   1.019   1.143   1.169   1.041   0.983   1.045   1.037   0.995   1.099   1.204   1.112   1.214   1.289   1.097   1.331   1.512   1.306   1.441   1.133   1.015   0.961   1.063   1.006   1.233   1.091   0.963
     1.00    1.080   1.007   1.033   1.066   1.137   1.065   1.099   1.174   0.942   0.871   1.060   1.065   1.084   1.134   1.224   1.123   1.188   0.993   1.130   1.158   1.312   1.335   1.315   1.296   1.088   0.878   0.965   0.916   0.952   1.024   0.987

   Mean standard deviation across all grid points:
      u component:    1.348 m/s
      v component:    1.980 m/s
      w component:    1.100 m/s


U-component (X) statistics from the interpolated hub point:

   Mean =  11.4000 m/s
   TI   =  17.3772 %


Processing complete.  5.7344 CPU seconds used.
